! To optimize the structure
%mem=2GB
%chk=optim_gasphase.chk
#p B3LYP/6-31G(d) opt=(maxcycle=200,maxstep=20)  freq=noraman

 TDPA

0 1
C        -18.04917        0.75788        0.73248
C        -17.13117       -0.32683        0.17043
N        -16.27161       -0.89197        1.21429
C        -16.92763       -1.70679        2.24031
C        -16.80960       -1.06419        3.62441
C        -14.83139       -0.70881        1.21054
C        -13.98909       -1.53446        1.98969
C        -12.60292       -1.36678        1.99317
C        -11.98751       -0.36149        1.22472
C        -12.82015        0.46974        0.45228
C        -14.20697        0.30158        0.44243
N        -10.55022       -0.18591        1.23182
C         -9.98199        1.13474        1.05904
C        -10.65211        2.28239        1.52179
C        -10.10612        3.55719        1.35750
C         -8.86097        3.75052        0.71424
C         -8.18997        2.59067        0.25863
C         -8.73830        1.31718        0.42629
N         -8.28288        5.07414        0.54495
C         -9.05980        6.26903        0.90820
C        -10.21474        6.49523       -0.07215
C         -6.90888        5.17526        0.02031
C         -6.32094        6.58318       -0.11956
C         -9.68166       -1.33060        1.41136
C         -8.43776       -1.20766        2.05786
C         -7.59884       -2.31038        2.23292
C         -7.95954       -3.59530        1.76335
C         -9.21538       -3.71189        1.12131
C        -10.05239       -2.60720        0.94950
N         -7.09442       -4.74965        1.94736
C         -5.74143       -4.57573        2.49734
C         -4.82379       -3.87245        1.49264
C         -7.61648       -6.07975        1.58450
C         -6.68892       -7.27685        1.81701
H        -18.71345        0.35613        1.52453
H        -18.68647        1.16313       -0.08147
H        -17.43966        1.58470        1.15475
H        -17.73645       -1.13998       -0.28613
H        -16.56268        0.10986       -0.66758
H        -18.01333       -1.81554        2.02490
H        -16.51456       -2.73666        2.23995
H        -17.27931       -0.05821        3.61676
H        -15.75425       -0.95663        3.94335
H        -17.33548       -1.69547        4.37116
H        -14.38231       -2.32894        2.60492
H        -12.01382       -2.02397        2.61899
H        -12.40025        1.25331       -0.16448
H        -14.76245        0.99529       -0.16646
H        -11.60121        2.19942        2.03463
H        -10.67961        4.37941        1.75567
H         -7.23362        2.64198       -0.23962
H         -8.18467        0.47184        0.03969
H         -8.46811        7.19915        0.88257
H         -9.41641        6.18969        1.95634
H         -9.80940        6.64645       -1.09516
H        -10.77891        7.40496        0.22311
H        -10.92256        5.64500       -0.10366
H         -6.88212        4.72530       -0.99571
H         -6.22734        4.60507        0.68893
H         -6.93091        7.19568       -0.81739
H         -5.29482        6.50999       -0.53818
H         -6.24331        7.07858        0.87148
H         -8.11125       -0.25453        2.45225
H         -6.67095       -2.12939        2.75232
H         -9.57470       -4.65369        0.73483
H        -10.99172       -2.75821        0.43434
H         -5.24017       -5.52903        2.73364
H         -5.78823       -4.03356        3.46476
H         -4.74391       -4.48572        0.57000
H         -3.81011       -3.76011        1.93184
H         -5.19032       -2.86758        1.20841
H         -7.86076       -6.08230        0.50016
H         -8.54417       -6.27146        2.16700
H         -5.75659       -7.17235        1.22201
H         -7.20167       -8.20506        1.48681
H         -6.45429       -7.39032        2.89668

