! To optimize the structure
%mem=2GB
%chk=optim_gasphase_3.chk
#p B3LYP/6-31+G(d,p) opt=(maxcycle=200,maxstep=20)  freq=noraman

 TDPA

0 1
C	-5.192659	-4.579629	-0.785744
C	-3.850862	-5.119493	-1.304486
N	-2.726423	-4.984064	-0.386097
C	-2.401634	-6.116046	0.473809
C	-3.003479	-6.063056	1.886477
C	-2.061202	-3.766046	-0.245311
C	-0.992416	-3.602252	0.667007
C	-0.309585	-2.396606	0.780201
C	-0.639506	-1.291488	-0.015479
C	-1.697986	-1.440609	-0.920437
C	-2.403078	-2.635207	-1.022619
N	0.068113	-0.060982	0.10129
C	-0.650494	1.160767	0.172319
C	-1.831544	1.260009	0.928925
C	-2.538525	2.452194	1.000026
C	-2.105835	3.610603	0.323104
C	-0.922897	3.504432	-0.429155
C	-0.212902	2.306178	-0.504225
N	-2.832112	4.821673	0.457479
C	-4.267598	4.757487	0.145069
C	-4.604019	4.698413	-1.352426
C	-2.14767	6.050102	0.053737
C	-2.779155	7.315186	0.638695
C	1.487692	-0.065039	0.120903
C	2.203583	0.781659	0.985876
C	3.591024	0.769647	1.013058
C	4.340221	-0.089476	0.183118
C	3.617227	-0.93716	-0.674217
C	2.222685	-0.924084	-0.704789
N	5.755532	-0.103827	0.273541
C	6.430822	1.194257	0.128739
C	6.511067	1.727476	-1.309469
C	6.443839	-1.249159	-0.322181
C	7.871214	-1.434927	0.196905
H	-5.522519	-5.128567	0.101205
H	-5.966891	-4.681809	-1.554488
H	-5.117234	-3.522472	-0.516806
H	-3.955775	-6.184685	-1.536027
H	-3.598161	-4.632448	-2.253934
H	-2.751448	-7.020992	-0.033883
H	-1.311257	-6.214714	0.540248
H	-4.096805	-6.075113	1.850483
H	-2.695574	-5.15658	2.414756
H	-2.674113	-6.928087	2.47304
H	-0.690771	-4.417266	1.312797
H	0.499700	-2.310658	1.498472
H	-1.983094	-0.601629	-1.547384
H	-3.220464	-2.681271	-1.73108
H	-2.184797	0.393158	1.477628
H	-3.422253	2.498163	1.628478
H	-0.553953	4.354553	-0.991282
H	0.689561	2.258175	-1.10478
H	-4.759081	5.620311	0.604696
H	-4.684113	3.878354	0.641082
H	-4.270623	5.597038	-1.88145
H	-5.686512	4.612407	-1.496314
H	-4.127712	3.832604	-1.822763
H	-2.074413	6.157769	-1.043746
H	-1.12088	5.975547	0.424424
H	-3.758285	7.538135	0.204655
H	-2.131701	8.173850	0.434618
H	-2.896667	7.222237	1.722634
H	1.660165	1.442550	1.653169
H	4.104237	1.408551	1.724675
H	4.138039	-1.604259	-1.351348
H	1.697702	-1.585674	-1.386034
H	7.436167	1.108726	0.552046
H	5.906363	1.921478	0.751939
H	7.093988	1.065749	-1.958242
H	6.991188	2.711933	-1.324125
H	5.510745	1.829646	-1.741482
H	6.463898	-1.208505	-1.426415
H	5.863601	-2.138385	-0.057888
H	8.552287	-0.652495	-0.150505
H	8.267492	-2.390759	-0.160156
H	7.886217	-1.44296	1.291025

