! To optimize the structure
%mem=2GB
%chk=optim_gasphase_2.chk
#p B3LYP/6-31G(d,p) opt=(maxcycle=200,maxstep=20)  freq=noraman

 TDPA

0 1
C	-5.176948	-4.596172	-0.78639
C	-3.833862	-5.133813	-1.305355
N	-2.708983	-4.99495	-0.3878
C	-2.382931	-6.124846	0.474593
C	-2.986892	-6.070907	1.886785
C	-2.048395	-3.774105	-0.24622
C	-0.981015	-3.605626	0.667148
C	-0.302308	-2.397376	0.780722
C	-0.634999	-1.293419	-0.015552
C	-1.692103	-1.44689	-0.921525
C	-2.392916	-2.644263	-1.024122
N	0.068193	-0.060334	0.101457
C	-0.655011	1.158743	0.172995
C	-1.835413	1.253962	0.931407
C	-2.546884	2.443775	1.002955
C	-2.119839	3.603386	0.324416
C	-0.937553	3.501319	-0.429448
C	-0.222778	2.305626	-0.504835
N	-2.851417	4.811680	0.459044
C	-4.283915	4.743524	0.134485
C	-4.609067	4.694482	-1.366388
C	-2.167656	6.043758	0.065921
C	-2.807542	7.305116	0.651437
C	1.487794	-0.05917	0.121332
C	2.200525	0.789603	0.987149
C	3.588277	0.782469	1.014721
C	4.340799	-0.073172	0.184155
C	3.621100	-0.922983	-0.673816
C	2.226266	-0.915135	-0.704774
N	5.756580	-0.081615	0.274964
C	6.426402	1.217343	0.114149
C	6.508429	1.732271	-1.331145
C	6.448079	-1.23112	-0.308571
C	7.876861	-1.40709	0.21191
H	-5.504969	-5.14556	0.102306
H	-5.951798	-4.701583	-1.555682
H	-5.10393	-3.537514	-0.518444
H	-3.936538	-6.200242	-1.534927
H	-3.581892	-4.647328	-2.25582
H	-2.73098	-7.031503	-0.032516
H	-1.291909	-6.220796	0.541895
H	-4.081213	-6.085423	1.848836
H	-2.681536	-5.162103	2.414707
H	-2.655898	-6.935475	2.475218
H	-0.676662	-4.419165	1.314485
H	0.506048	-2.308843	1.500609
H	-1.979967	-0.609077	-1.549791
H	-3.209723	-2.692558	-1.733979
H	-2.18459	0.385975	1.482068
H	-3.429916	2.487389	1.633711
H	-0.572913	4.353265	-0.99293
H	0.679296	2.260997	-1.107306
H	-4.782546	5.601318	0.597334
H	-4.699181	3.857501	0.620553
H	-4.275482	5.599607	-1.886356
H	-5.691273	4.604529	-1.518474
H	-4.12490	3.833627	-1.840269
H	-2.086548	6.156037	-1.031097
H	-1.143219	5.969768	0.444877
H	-3.78441	7.527603	0.209539
H	-2.159365	8.166792	0.456503
H	-2.934118	7.206647	1.734913
H	1.654454	1.448014	1.655682
H	4.099717	1.422309	1.72781
H	4.145284	-1.587913	-1.351573
H	1.703986	-1.578521	-1.387269
H	7.431472	1.141276	0.541569
H	5.895325	1.950086	0.726278
H	7.096893	1.064081	-1.970019
H	6.984512	2.719729	-1.356656
H	5.507925	1.824226	-1.767723
H	6.467480	-1.201863	-1.413724
H	5.869733	-2.119107	-0.033725
H	8.555988	-0.625978	-0.145387
H	8.275369	-2.367087	-0.1348
H	7.892365	-1.402352	1.307076

