! To optimize the structure
%mem=24GB
%chk=optim.chk
#p B3LYP/6-31G(d,p) opt=(CalcAll,maxcycle=200,maxstep=20) scrf=(pcm,solvent=diethylether) pop=reg

 DPPD

0 1
C         -1.50602        0.68881        0.18213
C         -0.59762        1.68608        0.53730
C          0.77545        1.46433        0.39929
C          1.26436        0.23547       -0.08237
C          0.33091       -0.75588       -0.45768
C         -1.04221       -0.52761       -0.32002
N          2.68130        0.07305       -0.21940
C          3.41745       -1.15144       -0.32625
C          4.72120       -1.10503       -0.84401
C          5.49267       -2.26387       -0.95382
C          4.98717       -3.50931       -0.54964
C          3.69676       -3.55244        0.01360
C          2.92408       -2.39181        0.12354
N          5.83241       -4.66011       -0.66785
C          5.44145       -6.03850       -0.67629
C          6.41984       -7.01291       -0.40347
C          6.10050       -8.37357       -0.41482
C          4.80135       -8.78430       -0.71376
C          3.82279       -7.83496       -1.01063
C          4.13621       -6.47182       -0.99809
H         -2.56934        0.86241        0.28570
H         -0.95693        2.63357        0.91775
H          1.46340        2.25269        0.67864
H          0.63554       -1.69718       -0.88577
H         -1.74894       -1.29373       -0.61230
H          3.23771        0.94208       -0.24642
H          5.14260       -0.16333       -1.17357
H          6.49164       -2.18972       -1.36558
H          3.27961       -4.46389        0.41098
H          1.96035       -2.48225        0.59866
H          6.84360       -4.47414       -0.75988
H          7.43499       -6.71570       -0.17115
H          6.86256       -9.10984       -0.19397
H          4.55548       -9.83829       -0.72604
H          2.81961       -8.15611       -1.26025
H          3.35439       -5.78186       -1.27157

